*Heading
** Job name: circular Model name: Model-1
** Generated by: Abaqus/CAE 2022
*Preprint, echo=NO, model=NO, history=NO, contact=NO
**
** PARTS
**
*Part, name=Part-1
*Node
      1, -0.824999988,  0.129903808,           0.
      2, -0.879903793,  0.075000003,           0.
      3, -0.899999976,           0.,           0.
      4, -0.879903793, -0.075000003,           0.
      5, -0.824999988, -0.129903808,           0.
      6,        -0.75,  0.150000006,           0.
      7,        -0.75, -0.150000006,           0.
      8,         0.75,  0.150000006,           0.
      9,  0.807402492,  0.138581932,           0.
     10,  0.888581932, 0.0574025139,           0.
     11,  0.899999976,           0.,           0.
     12,  0.888581932, -0.0574025139,           0.
     13,  0.807402492, -0.138581932,           0.
     14,         0.75, -0.150000006,           0.
     15, -0.649999976,  0.150000006,           0.
     16, -0.550000012,  0.150000006,           0.
     17, -0.449999988,  0.150000006,           0.
     18, -0.349999994,  0.150000006,           0.
     19,        -0.25,  0.150000006,           0.
     20, -0.150000006,  0.150000006,           0.
** ... 4672 like lines cut
*Element, type=DC3D8
   1,   49,    4,    5,   90,  141,   96,   97,  182
   2,    2,    3,   88,   89,   94,   95,  180,  181
   3,    3,    4,   49,   88,   95,   96,  141,  180
   4,   52,   50,   49,   57,  144,  142,  141,  149
   5,    6,   52,   58,   15,   98,  144,  150,  107
   6,    8,   47,   46,    9,  100,  139,  138,  101
   7,   86,   11,   10,   54,  178,  103,  102,  146
   8,   13,   30,   87,   53,  105,  122,  179,  145
   9,   15,   58,   61,   16,  107,  150,  153,  108
  10,   16,   61,   62,   17,  108,  153,  154,  109
  11,   17,   62,   63,   18,  109,  154,  155,  110
  12,   18,   63,   64,   19,  110,  155,  156,  111
  13,   19,   64,   65,   20,  111,  156,  157,  112
  14,   20,   65,   66,   21,  112,  157,  158,  113
  15,   21,   66,   67,   22,  113,  158,  159,  114
  16,   22,   67,   68,   23,  114,  159,  160,  115
  17,   23,   68,   69,   24,  115,  160,  161,  116
  18,   24,   69,   79,   25,  116,  161,  171,  117
  19,   25,   79,   80,   26,  117,  171,  172,  118
  20,   26,   80,   81,   27,  118,  172,  173,  119
** ... 3430 like lines cut
*Nset, nset=Set-All, generate
    1,  4692,     1
*Elset, elset=Set-All, generate
    1,  3450,     1
*Nset, nset=Set-length1
 350,
*Nset, nset=Set-length2
 1178,
*Nset, nset=Set-length3
 2374,
*Nset, nset=Set-width4
 2351,
*Nset, nset=Set-width5
 2383,
*Nset, nset=Set-width6
 2362,
*Nset, nset=Set-width7
 2349,
*Nset, nset=Set-height8
 2321,
*Nset, nset=Set-height9
 2366,
** Section: Section-1
*Solid Section, elset=Set-All, material=Material-1
1.,
*End Part
**  
**
** ASSEMBLY
**
*Assembly, name=Assembly
**  
*Instance, name=Part-1, part=Part-1
*End Instance
**  
*Nset, nset=Set-1, instance=Part-1
    6,    8,   15,   16,   17,   18,   19,   20,   21,   22,   23,   24,   25,   26,   27,   28
   98,  100,  107,  108,  109,  110,  111,  112,  113,  114,  115,  116,  117,  118,  119,  120
  190,  192,  199,  200,  201,  202,  203,  204,  205,  206,  207,  208,  209,  210,  211,  212
  282,  284,  291,  292,  293,  294,  295,  296,  297,  298,  299,  300,  301,  302,  303,  304
  374,  376,  383,  384,  385,  386,  387,  388,  389,  390,  391,  392,  393,  394,  395,  396
  466,  468,  475,  476,  477,  478,  479,  480,  481,  482,  483,  484,  485,  486,  487,  488
  558,  560,  567,  568,  569,  570,  571,  572,  573,  574,  575,  576,  577,  578,  579,  580
  650,  652,  659,  660,  661,  662,  663,  664,  665,  666,  667,  668,  669,  670,  671,  672
  742,  744,  751,  752,  753,  754,  755,  756,  757,  758,  759,  760,  761,  762,  763,  764
  834,  836,  843,  844,  845,  846,  847,  848,  849,  850,  851,  852,  853,  854,  855,  856
  926,  928,  935,  936,  937,  938,  939,  940,  941,  942,  943,  944,  945,  946,  947,  948
 1018, 1020, 1027, 1028, 1029, 1030, 1031, 1032, 1033, 1034, 1035, 1036, 1037, 1038, 1039, 1040
 1110, 1112, 1119, 1120, 1121, 1122, 1123, 1124, 1125, 1126, 1127, 1128, 1129, 1130, 1131, 1132
 1202, 1204, 1211, 1212, 1213, 1214, 1215, 1216, 1217, 1218, 1219, 1220, 1221, 1222, 1223, 1224
 1294, 1296, 1303, 1304, 1305, 1306, 1307, 1308, 1309, 1310, 1311, 1312, 1313, 1314, 1315, 1316
 1386, 1388, 1395, 1396, 1397, 1398, 1399, 1400, 1401, 1402, 1403, 1404, 1405, 1406, 1407, 1408
 1478, 1480, 1487, 1488, 1489, 1490, 1491, 1492, 1493, 1494, 1495, 1496, 1497, 1498, 1499, 1500
 1570, 1572, 1579, 1580, 1581, 1582, 1583, 1584, 1585, 1586, 1587, 1588, 1589, 1590, 1591, 1592
 1662, 1664, 1671, 1672, 1673, 1674, 1675, 1676, 1677, 1678, 1679, 1680, 1681, 1682, 1683, 1684
 1754, 1756, 1763, 1764, 1765, 1766, 1767, 1768, 1769, 1770, 1771, 1772, 1773, 1774, 1775, 1776
** ... 31 like lines cut
*Elset, elset=Set-1, instance=Part-1
    5,    9,   10,   11,   12,   13,   14,   15,   16,   17,   18,   19,   20,   38,   63,   74
   78,   79,   80,   81,   82,   83,   84,   85,   86,   87,   88,   89,  107,  132,  143,  147
  148,  149,  150,  151,  152,  153,  154,  155,  156,  157,  158,  176,  201,  212,  216,  217
  218,  219,  220,  221,  222,  223,  224,  225,  226,  227,  245,  270,  281,  285,  286,  287
  288,  289,  290,  291,  292,  293,  294,  295,  296,  314,  339,  350,  354,  355,  356,  357
  358,  359,  360,  361,  362,  363,  364,  365,  383,  408,  419,  423,  424,  425,  426,  427
  428,  429,  430,  431,  432,  433,  434,  452,  477,  488,  492,  493,  494,  495,  496,  497
  498,  499,  500,  501,  502,  503,  521,  546,  557,  561,  562,  563,  564,  565,  566,  567
  568,  569,  570,  571,  572,  590,  615,  626,  630,  631,  632,  633,  634,  635,  636,  637
  638,  639,  640,  641,  659,  684,  695,  699,  700,  701,  702,  703,  704,  705,  706,  707
  708,  709,  710,  728,  753,  764,  768,  769,  770,  771,  772,  773,  774,  775,  776,  777
  778,  779,  797,  822,  833,  837,  838,  839,  840,  841,  842,  843,  844,  845,  846,  847
  848,  866,  891,  902,  906,  907,  908,  909,  910,  911,  912,  913,  914,  915,  916,  917
  935,  960,  971,  975,  976,  977,  978,  979,  980,  981,  982,  983,  984,  985,  986, 1004
 1029, 1040, 1044, 1045, 1046, 1047, 1048, 1049, 1050, 1051, 1052, 1053, 1054, 1055, 1073, 1098
 1109, 1113, 1114, 1115, 1116, 1117, 1118, 1119, 1120, 1121, 1122, 1123, 1124, 1142, 1167, 1178
 1182, 1183, 1184, 1185, 1186, 1187, 1188, 1189, 1190, 1191, 1192, 1193, 1211, 1236, 1247, 1251
 1252, 1253, 1254, 1255, 1256, 1257, 1258, 1259, 1260, 1261, 1262, 1280, 1305, 1316, 1320, 1321
 1322, 1323, 1324, 1325, 1326, 1327, 1328, 1329, 1330, 1331, 1349, 1374, 1385, 1389, 1390, 1391
 1392, 1393, 1394, 1395, 1396, 1397, 1398, 1399, 1400, 1418, 1443, 1454, 1458, 1459, 1460, 1461
** ... 27 like lines cut
*Nset, nset=Set-2, instance=Part-1
    7,   14,   31,   32,   33,   34,   35,   36,   37,   38,   39,   40,   41,   42,   43,   44
   99,  106,  123,  124,  125,  126,  127,  128,  129,  130,  131,  132,  133,  134,  135,  136
  191,  198,  215,  216,  217,  218,  219,  220,  221,  222,  223,  224,  225,  226,  227,  228
  283,  290,  307,  308,  309,  310,  311,  312,  313,  314,  315,  316,  317,  318,  319,  320
  375,  382,  399,  400,  401,  402,  403,  404,  405,  406,  407,  408,  409,  410,  411,  412
  467,  474,  491,  492,  493,  494,  495,  496,  497,  498,  499,  500,  501,  502,  503,  504
  559,  566,  583,  584,  585,  586,  587,  588,  589,  590,  591,  592,  593,  594,  595,  596
  651,  658,  675,  676,  677,  678,  679,  680,  681,  682,  683,  684,  685,  686,  687,  688
  743,  750,  767,  768,  769,  770,  771,  772,  773,  774,  775,  776,  777,  778,  779,  780
  835,  842,  859,  860,  861,  862,  863,  864,  865,  866,  867,  868,  869,  870,  871,  872
  927,  934,  951,  952,  953,  954,  955,  956,  957,  958,  959,  960,  961,  962,  963,  964
 1019, 1026, 1043, 1044, 1045, 1046, 1047, 1048, 1049, 1050, 1051, 1052, 1053, 1054, 1055, 1056
 1111, 1118, 1135, 1136, 1137, 1138, 1139, 1140, 1141, 1142, 1143, 1144, 1145, 1146, 1147, 1148
 1203, 1210, 1227, 1228, 1229, 1230, 1231, 1232, 1233, 1234, 1235, 1236, 1237, 1238, 1239, 1240
 1295, 1302, 1319, 1320, 1321, 1322, 1323, 1324, 1325, 1326, 1327, 1328, 1329, 1330, 1331, 1332
 1387, 1394, 1411, 1412, 1413, 1414, 1415, 1416, 1417, 1418, 1419, 1420, 1421, 1422, 1423, 1424
 1479, 1486, 1503, 1504, 1505, 1506, 1507, 1508, 1509, 1510, 1511, 1512, 1513, 1514, 1515, 1516
 1571, 1578, 1595, 1596, 1597, 1598, 1599, 1600, 1601, 1602, 1603, 1604, 1605, 1606, 1607, 1608
 1663, 1670, 1687, 1688, 1689, 1690, 1691, 1692, 1693, 1694, 1695, 1696, 1697, 1698, 1699, 1700
 1755, 1762, 1779, 1780, 1781, 1782, 1783, 1784, 1785, 1786, 1787, 1788, 1789, 1790, 1791, 1792
** ... 31 like lines cut
*Elset, elset=Set-2, instance=Part-1
   34,   45,   47,   49,   50,   52,   53,   54,   55,   56,   57,   58,   59,   60,   61,  103
  114,  116,  118,  119,  121,  122,  123,  124,  125,  126,  127,  128,  129,  130,  172,  183
  185,  187,  188,  190,  191,  192,  193,  194,  195,  196,  197,  198,  199,  241,  252,  254
  256,  257,  259,  260,  261,  262,  263,  264,  265,  266,  267,  268,  310,  321,  323,  325
  326,  328,  329,  330,  331,  332,  333,  334,  335,  336,  337,  379,  390,  392,  394,  395
  397,  398,  399,  400,  401,  402,  403,  404,  405,  406,  448,  459,  461,  463,  464,  466
  467,  468,  469,  470,  471,  472,  473,  474,  475,  517,  528,  530,  532,  533,  535,  536
  537,  538,  539,  540,  541,  542,  543,  544,  586,  597,  599,  601,  602,  604,  605,  606
  607,  608,  609,  610,  611,  612,  613,  655,  666,  668,  670,  671,  673,  674,  675,  676
  677,  678,  679,  680,  681,  682,  724,  735,  737,  739,  740,  742,  743,  744,  745,  746
  747,  748,  749,  750,  751,  793,  804,  806,  808,  809,  811,  812,  813,  814,  815,  816
  817,  818,  819,  820,  862,  873,  875,  877,  878,  880,  881,  882,  883,  884,  885,  886
  887,  888,  889,  931,  942,  944,  946,  947,  949,  950,  951,  952,  953,  954,  955,  956
  957,  958, 1000, 1011, 1013, 1015, 1016, 1018, 1019, 1020, 1021, 1022, 1023, 1024, 1025, 1026
 1027, 1069, 1080, 1082, 1084, 1085, 1087, 1088, 1089, 1090, 1091, 1092, 1093, 1094, 1095, 1096
 1138, 1149, 1151, 1153, 1154, 1156, 1157, 1158, 1159, 1160, 1161, 1162, 1163, 1164, 1165, 1207
 1218, 1220, 1222, 1223, 1225, 1226, 1227, 1228, 1229, 1230, 1231, 1232, 1233, 1234, 1276, 1287
 1289, 1291, 1292, 1294, 1295, 1296, 1297, 1298, 1299, 1300, 1301, 1302, 1303, 1345, 1356, 1358
 1360, 1361, 1363, 1364, 1365, 1366, 1367, 1368, 1369, 1370, 1371, 1372, 1414, 1425, 1427, 1429
 1430, 1432, 1433, 1434, 1435, 1436, 1437, 1438, 1439, 1440, 1441, 1483, 1494, 1496, 1498, 1499
** ... 27 like lines cut
*Nset, nset=Set-3, instance=Part-1
    8,    9,   10,   11,   12,   13,   14,   29,   30,  100,  101,  102,  103,  104,  105,  106
  121,  122,  192,  193,  194,  195,  196,  197,  198,  213,  214,  284,  285,  286,  287,  288
  289,  290,  305,  306,  376,  377,  378,  379,  380,  381,  382,  397,  398,  468,  469,  470
  471,  472,  473,  474,  489,  490,  560,  561,  562,  563,  564,  565,  566,  581,  582,  652
  653,  654,  655,  656,  657,  658,  673,  674,  744,  745,  746,  747,  748,  749,  750,  765
  766,  836,  837,  838,  839,  840,  841,  842,  857,  858,  928,  929,  930,  931,  932,  933
  934,  949,  950, 1020, 1021, 1022, 1023, 1024, 1025, 1026, 1041, 1042, 1112, 1113, 1114, 1115
 1116, 1117, 1118, 1133, 1134, 1204, 1205, 1206, 1207, 1208, 1209, 1210, 1225, 1226, 1296, 1297
 1298, 1299, 1300, 1301, 1302, 1317, 1318, 1388, 1389, 1390, 1391, 1392, 1393, 1394, 1409, 1410
 1480, 1481, 1482, 1483, 1484, 1485, 1486, 1501, 1502, 1572, 1573, 1574, 1575, 1576, 1577, 1578
 1593, 1594, 1664, 1665, 1666, 1667, 1668, 1669, 1670, 1685, 1686, 1756, 1757, 1758, 1759, 1760
 1761, 1762, 1777, 1778, 1848, 1849, 1850, 1851, 1852, 1853, 1854, 1869, 1870, 1940, 1941, 1942
 1943, 1944, 1945, 1946, 1961, 1962, 2032, 2033, 2034, 2035, 2036, 2037, 2038, 2053, 2054, 2124
 2125, 2126, 2127, 2128, 2129, 2130, 2145, 2146, 2216, 2217, 2218, 2219, 2220, 2221, 2222, 2237
 2238, 2308, 2309, 2310, 2311, 2312, 2313, 2314, 2329, 2330, 2400, 2401, 2402, 2403, 2404, 2405
 2406, 2421, 2422, 2492, 2493, 2494, 2495, 2496, 2497, 2498, 2513, 2514, 2584, 2585, 2586, 2587
 2588, 2589, 2590, 2605, 2606, 2676, 2677, 2678, 2679, 2680, 2681, 2682, 2697, 2698, 2768, 2769
 2770, 2771, 2772, 2773, 2774, 2789, 2790, 2860, 2861, 2862, 2863, 2864, 2865, 2866, 2881, 2882
 2952, 2953, 2954, 2955, 2956, 2957, 2958, 2973, 2974, 3044, 3045, 3046, 3047, 3048, 3049, 3050
 3065, 3066, 3136, 3137, 3138, 3139, 3140, 3141, 3142, 3157, 3158, 3228, 3229, 3230, 3231, 3232
** ... 9 like lines cut
*Elset, elset=Set-3, instance=Part-1
    6,    7,    8,   22,   23,   37,   65,   66,   75,   76,   77,   91,   92,  106,  134,  135
  144,  145,  146,  160,  161,  175,  203,  204,  213,  214,  215,  229,  230,  244,  272,  273
  282,  283,  284,  298,  299,  313,  341,  342,  351,  352,  353,  367,  368,  382,  410,  411
  420,  421,  422,  436,  437,  451,  479,  480,  489,  490,  491,  505,  506,  520,  548,  549
  558,  559,  560,  574,  575,  589,  617,  618,  627,  628,  629,  643,  644,  658,  686,  687
  696,  697,  698,  712,  713,  727,  755,  756,  765,  766,  767,  781,  782,  796,  824,  825
  834,  835,  836,  850,  851,  865,  893,  894,  903,  904,  905,  919,  920,  934,  962,  963
  972,  973,  974,  988,  989, 1003, 1031, 1032, 1041, 1042, 1043, 1057, 1058, 1072, 1100, 1101
 1110, 1111, 1112, 1126, 1127, 1141, 1169, 1170, 1179, 1180, 1181, 1195, 1196, 1210, 1238, 1239
 1248, 1249, 1250, 1264, 1265, 1279, 1307, 1308, 1317, 1318, 1319, 1333, 1334, 1348, 1376, 1377
 1386, 1387, 1388, 1402, 1403, 1417, 1445, 1446, 1455, 1456, 1457, 1471, 1472, 1486, 1514, 1515
 1524, 1525, 1526, 1540, 1541, 1555, 1583, 1584, 1593, 1594, 1595, 1609, 1610, 1624, 1652, 1653
 1662, 1663, 1664, 1678, 1679, 1693, 1721, 1722, 1731, 1732, 1733, 1747, 1748, 1762, 1790, 1791
 1800, 1801, 1802, 1816, 1817, 1831, 1859, 1860, 1869, 1870, 1871, 1885, 1886, 1900, 1928, 1929
 1938, 1939, 1940, 1954, 1955, 1969, 1997, 1998, 2007, 2008, 2009, 2023, 2024, 2038, 2066, 2067
 2076, 2077, 2078, 2092, 2093, 2107, 2135, 2136, 2145, 2146, 2147, 2161, 2162, 2176, 2204, 2205
 2214, 2215, 2216, 2230, 2231, 2245, 2273, 2274, 2283, 2284, 2285, 2299, 2300, 2314, 2342, 2343
 2352, 2353, 2354, 2368, 2369, 2383, 2411, 2412, 2421, 2422, 2423, 2437, 2438, 2452, 2480, 2481
 2490, 2491, 2492, 2506, 2507, 2521, 2549, 2550, 2559, 2560, 2561, 2575, 2576, 2590, 2618, 2619
 2628, 2629, 2630, 2644, 2645, 2659, 2687, 2688, 2697, 2698, 2699, 2713, 2714, 2728, 2756, 2757
** ... 5 like lines cut
*Nset, nset=Set-4, instance=Part-1
    1,    2,    3,    4,    5,    6,    7,   93,   94,   95,   96,   97,   98,   99,  185,  186
  187,  188,  189,  190,  191,  277,  278,  279,  280,  281,  282,  283,  369,  370,  371,  372
  373,  374,  375,  461,  462,  463,  464,  465,  466,  467,  553,  554,  555,  556,  557,  558
  559,  645,  646,  647,  648,  649,  650,  651,  737,  738,  739,  740,  741,  742,  743,  829
  830,  831,  832,  833,  834,  835,  921,  922,  923,  924,  925,  926,  927, 1013, 1014, 1015
 1016, 1017, 1018, 1019, 1105, 1106, 1107, 1108, 1109, 1110, 1111, 1197, 1198, 1199, 1200, 1201
 1202, 1203, 1289, 1290, 1291, 1292, 1293, 1294, 1295, 1381, 1382, 1383, 1384, 1385, 1386, 1387
 1473, 1474, 1475, 1476, 1477, 1478, 1479, 1565, 1566, 1567, 1568, 1569, 1570, 1571, 1657, 1658
 1659, 1660, 1661, 1662, 1663, 1749, 1750, 1751, 1752, 1753, 1754, 1755, 1841, 1842, 1843, 1844
 1845, 1846, 1847, 1933, 1934, 1935, 1936, 1937, 1938, 1939, 2025, 2026, 2027, 2028, 2029, 2030
 2031, 2117, 2118, 2119, 2120, 2121, 2122, 2123, 2209, 2210, 2211, 2212, 2213, 2214, 2215, 2301
 2302, 2303, 2304, 2305, 2306, 2307, 2393, 2394, 2395, 2396, 2397, 2398, 2399, 2485, 2486, 2487
 2488, 2489, 2490, 2491, 2577, 2578, 2579, 2580, 2581, 2582, 2583, 2669, 2670, 2671, 2672, 2673
 2674, 2675, 2761, 2762, 2763, 2764, 2765, 2766, 2767, 2853, 2854, 2855, 2856, 2857, 2858, 2859
 2945, 2946, 2947, 2948, 2949, 2950, 2951, 3037, 3038, 3039, 3040, 3041, 3042, 3043, 3129, 3130
 3131, 3132, 3133, 3134, 3135, 3221, 3222, 3223, 3224, 3225, 3226, 3227, 3313, 3314, 3315, 3316
 3317, 3318, 3319, 3405, 3406, 3407, 3408, 3409, 3410, 3411, 3497, 3498, 3499, 3500, 3501, 3502
 3503, 3589, 3590, 3591, 3592, 3593, 3594, 3595, 3681, 3682, 3683, 3684, 3685, 3686, 3687, 3773
 3774, 3775, 3776, 3777, 3778, 3779, 3865, 3866, 3867, 3868, 3869, 3870, 3871, 3957, 3958, 3959
 3960, 3961, 3962, 3963, 4049, 4050, 4051, 4052, 4053, 4054, 4055, 4141, 4142, 4143, 4144, 4145
 4146, 4147, 4233, 4234, 4235, 4236, 4237, 4238, 4239, 4325, 4326, 4327, 4328, 4329, 4330, 4331
 4417, 4418, 4419, 4420, 4421, 4422, 4423, 4509, 4510, 4511, 4512, 4513, 4514, 4515, 4601, 4602
 4603, 4604, 4605, 4606, 4607
*Elset, elset=Set-4, instance=Part-1
    1,    2,    3,   40,   41,   67,   70,   71,   72,  109,  110,  136,  139,  140,  141,  178
  179,  205,  208,  209,  210,  247,  248,  274,  277,  278,  279,  316,  317,  343,  346,  347
  348,  385,  386,  412,  415,  416,  417,  454,  455,  481,  484,  485,  486,  523,  524,  550
  553,  554,  555,  592,  593,  619,  622,  623,  624,  661,  662,  688,  691,  692,  693,  730
  731,  757,  760,  761,  762,  799,  800,  826,  829,  830,  831,  868,  869,  895,  898,  899
  900,  937,  938,  964,  967,  968,  969, 1006, 1007, 1033, 1036, 1037, 1038, 1075, 1076, 1102
 1105, 1106, 1107, 1144, 1145, 1171, 1174, 1175, 1176, 1213, 1214, 1240, 1243, 1244, 1245, 1282
 1283, 1309, 1312, 1313, 1314, 1351, 1352, 1378, 1381, 1382, 1383, 1420, 1421, 1447, 1450, 1451
 1452, 1489, 1490, 1516, 1519, 1520, 1521, 1558, 1559, 1585, 1588, 1589, 1590, 1627, 1628, 1654
 1657, 1658, 1659, 1696, 1697, 1723, 1726, 1727, 1728, 1765, 1766, 1792, 1795, 1796, 1797, 1834
 1835, 1861, 1864, 1865, 1866, 1903, 1904, 1930, 1933, 1934, 1935, 1972, 1973, 1999, 2002, 2003
 2004, 2041, 2042, 2068, 2071, 2072, 2073, 2110, 2111, 2137, 2140, 2141, 2142, 2179, 2180, 2206
 2209, 2210, 2211, 2248, 2249, 2275, 2278, 2279, 2280, 2317, 2318, 2344, 2347, 2348, 2349, 2386
 2387, 2413, 2416, 2417, 2418, 2455, 2456, 2482, 2485, 2486, 2487, 2524, 2525, 2551, 2554, 2555
 2556, 2593, 2594, 2620, 2623, 2624, 2625, 2662, 2663, 2689, 2692, 2693, 2694, 2731, 2732, 2758
 2761, 2762, 2763, 2800, 2801, 2827, 2830, 2831, 2832, 2869, 2870, 2896, 2899, 2900, 2901, 2938
 2939, 2965, 2968, 2969, 2970, 3007, 3008, 3034, 3037, 3038, 3039, 3076, 3077, 3103, 3106, 3107
 3108, 3145, 3146, 3172, 3175, 3176, 3177, 3214, 3215, 3241, 3244, 3245, 3246, 3283, 3284, 3310
 3313, 3314, 3315, 3352, 3353, 3379, 3382, 3383, 3384, 3421, 3422, 3448
*Nset, nset=Set-5, instance=Part-1, generate
 4601,  4692,     1
*Elset, elset=Set-5, instance=Part-1, generate
 3382,  3450,     1
*Nset, nset=Set-6, instance=Part-1, generate
  1,  92,   1
*Elset, elset=Set-6, instance=Part-1, generate
  1,  69,   1
*Elset, elset=_Surf-1_S6, internal, instance=Part-1
    5,    9,   10,   11,   12,   13,   14,   15,   16,   17,   18,   19,   20,   38,   74,   78
   79,   80,   81,   82,   83,   84,   85,   86,   87,   88,   89,  107,  143,  147,  148,  149
  150,  151,  152,  153,  154,  155,  156,  157,  158,  176,  212,  216,  217,  218,  219,  220
  221,  222,  223,  224,  225,  226,  227,  245,  281,  285,  286,  287,  288,  289,  290,  291
  292,  293,  294,  295,  296,  314,  350,  354,  355,  356,  357,  358,  359,  360,  361,  362
  363,  364,  365,  383,  419,  423,  424,  425,  426,  427,  428,  429,  430,  431,  432,  433
  434,  452,  488,  492,  493,  494,  495,  496,  497,  498,  499,  500,  501,  502,  503,  521
  557,  561,  562,  563,  564,  565,  566,  567,  568,  569,  570,  571,  572,  590,  626,  630
  631,  632,  633,  634,  635,  636,  637,  638,  639,  640,  641,  659,  695,  699,  700,  701
  702,  703,  704,  705,  706,  707,  708,  709,  710,  728,  764,  768,  769,  770,  771,  772
  773,  774,  775,  776,  777,  778,  779,  797,  833,  837,  838,  839,  840,  841,  842,  843
  844,  845,  846,  847,  848,  866,  902,  906,  907,  908,  909,  910,  911,  912,  913,  914
  915,  916,  917,  935,  971,  975,  976,  977,  978,  979,  980,  981,  982,  983,  984,  985
  986, 1004, 1040, 1044, 1045, 1046, 1047, 1048, 1049, 1050, 1051, 1052, 1053, 1054, 1055, 1073
 1109, 1113, 1114, 1115, 1116, 1117, 1118, 1119, 1120, 1121, 1122, 1123, 1124, 1142, 1178, 1182
 1183, 1184, 1185, 1186, 1187, 1188, 1189, 1190, 1191, 1192, 1193, 1211, 1247, 1251, 1252, 1253
 1254, 1255, 1256, 1257, 1258, 1259, 1260, 1261, 1262, 1280, 1316, 1320, 1321, 1322, 1323, 1324
 1325, 1326, 1327, 1328, 1329, 1330, 1331, 1349, 1385, 1389, 1390, 1391, 1392, 1393, 1394, 1395
 1396, 1397, 1398, 1399, 1400, 1418, 1454, 1458, 1459, 1460, 1461, 1462, 1463, 1464, 1465, 1466
 1467, 1468, 1469, 1487, 1523, 1527, 1528, 1529, 1530, 1531, 1532, 1533, 1534, 1535, 1536, 1537
** ... 24 like lines cut
*Elset, elset=_Surf-1_S4, internal, instance=Part-1, generate
   63,  3444,    69
*Surface, type=ELEMENT, name=Surf-1
_Surf-1_S6, S6
_Surf-1_S4, S4
*Elset, elset=_Surf-2_S6, internal, instance=Part-1
   34,   50,   53,   54,   55,   56,   57,   58,   59,   60,  103,  119,  122,  123,  124,  125
  126,  127,  128,  129,  172,  188,  191,  192,  193,  194,  195,  196,  197,  198,  241,  257
  260,  261,  262,  263,  264,  265,  266,  267,  310,  326,  329,  330,  331,  332,  333,  334
  335,  336,  379,  395,  398,  399,  400,  401,  402,  403,  404,  405,  448,  464,  467,  468
  469,  470,  471,  472,  473,  474,  517,  533,  536,  537,  538,  539,  540,  541,  542,  543
  586,  602,  605,  606,  607,  608,  609,  610,  611,  612,  655,  671,  674,  675,  676,  677
  678,  679,  680,  681,  724,  740,  743,  744,  745,  746,  747,  748,  749,  750,  793,  809
  812,  813,  814,  815,  816,  817,  818,  819,  862,  878,  881,  882,  883,  884,  885,  886
  887,  888,  931,  947,  950,  951,  952,  953,  954,  955,  956,  957, 1000, 1016, 1019, 1020
 1021, 1022, 1023, 1024, 1025, 1026, 1069, 1085, 1088, 1089, 1090, 1091, 1092, 1093, 1094, 1095
 1138, 1154, 1157, 1158, 1159, 1160, 1161, 1162, 1163, 1164, 1207, 1223, 1226, 1227, 1228, 1229
 1230, 1231, 1232, 1233, 1276, 1292, 1295, 1296, 1297, 1298, 1299, 1300, 1301, 1302, 1345, 1361
 1364, 1365, 1366, 1367, 1368, 1369, 1370, 1371, 1414, 1430, 1433, 1434, 1435, 1436, 1437, 1438
 1439, 1440, 1483, 1499, 1502, 1503, 1504, 1505, 1506, 1507, 1508, 1509, 1552, 1568, 1571, 1572
 1573, 1574, 1575, 1576, 1577, 1578, 1621, 1637, 1640, 1641, 1642, 1643, 1644, 1645, 1646, 1647
 1690, 1706, 1709, 1710, 1711, 1712, 1713, 1714, 1715, 1716, 1759, 1775, 1778, 1779, 1780, 1781
 1782, 1783, 1784, 1785, 1828, 1844, 1847, 1848, 1849, 1850, 1851, 1852, 1853, 1854, 1897, 1913
 1916, 1917, 1918, 1919, 1920, 1921, 1922, 1923, 1966, 1982, 1985, 1986, 1987, 1988, 1989, 1990
 1991, 1992, 2035, 2051, 2054, 2055, 2056, 2057, 2058, 2059, 2060, 2061, 2104, 2120, 2123, 2124
 2125, 2126, 2127, 2128, 2129, 2130, 2173, 2189, 2192, 2193, 2194, 2195, 2196, 2197, 2198, 2199
** ... 12 like lines cut
*Elset, elset=_Surf-2_S4, internal, instance=Part-1
   45,   47,   61,  114,  116,  130,  183,  185,  199,  252,  254,  268,  321,  323,  337,  390
  392,  406,  459,  461,  475,  528,  530,  544,  597,  599,  613,  666,  668,  682,  735,  737
  751,  804,  806,  820,  873,  875,  889,  942,  944,  958, 1011, 1013, 1027, 1080, 1082, 1096
 1149, 1151, 1165, 1218, 1220, 1234, 1287, 1289, 1303, 1356, 1358, 1372, 1425, 1427, 1441, 1494
 1496, 1510, 1563, 1565, 1579, 1632, 1634, 1648, 1701, 1703, 1717, 1770, 1772, 1786, 1839, 1841
 1855, 1908, 1910, 1924, 1977, 1979, 1993, 2046, 2048, 2062, 2115, 2117, 2131, 2184, 2186, 2200
 2253, 2255, 2269, 2322, 2324, 2338, 2391, 2393, 2407, 2460, 2462, 2476, 2529, 2531, 2545, 2598
 2600, 2614, 2667, 2669, 2683, 2736, 2738, 2752, 2805, 2807, 2821, 2874, 2876, 2890, 2943, 2945
 2959, 3012, 3014, 3028, 3081, 3083, 3097, 3150, 3152, 3166, 3219, 3221, 3235, 3288, 3290, 3304
 3357, 3359, 3373, 3426, 3428, 3442
*Elset, elset=_Surf-2_S3, internal, instance=Part-1, generate
   49,  3430,    69
*Elset, elset=_Surf-2_S5, internal, instance=Part-1, generate
   52,  3433,    69
*Surface, type=ELEMENT, name=Surf-2
_Surf-2_S6, S6
_Surf-2_S4, S4
_Surf-2_S3, S3
_Surf-2_S5, S5
*Elset, elset=_Surf-3_S6, internal, instance=Part-1, generate
    6,  3387,    69
*Elset, elset=_Surf-3_S4, internal, instance=Part-1
    7,   22,   23,   76,   91,   92,  145,  160,  161,  214,  229,  230,  283,  298,  299,  352
  367,  368,  421,  436,  437,  490,  505,  506,  559,  574,  575,  628,  643,  644,  697,  712
  713,  766,  781,  782,  835,  850,  851,  904,  919,  920,  973,  988,  989, 1042, 1057, 1058
 1111, 1126, 1127, 1180, 1195, 1196, 1249, 1264, 1265, 1318, 1333, 1334, 1387, 1402, 1403, 1456
 1471, 1472, 1525, 1540, 1541, 1594, 1609, 1610, 1663, 1678, 1679, 1732, 1747, 1748, 1801, 1816
 1817, 1870, 1885, 1886, 1939, 1954, 1955, 2008, 2023, 2024, 2077, 2092, 2093, 2146, 2161, 2162
 2215, 2230, 2231, 2284, 2299, 2300, 2353, 2368, 2369, 2422, 2437, 2438, 2491, 2506, 2507, 2560
 2575, 2576, 2629, 2644, 2645, 2698, 2713, 2714, 2767, 2782, 2783, 2836, 2851, 2852, 2905, 2920
 2921, 2974, 2989, 2990, 3043, 3058, 3059, 3112, 3127, 3128, 3181, 3196, 3197, 3250, 3265, 3266
 3319, 3334, 3335, 3388, 3403, 3404
*Elset, elset=_Surf-3_S3, internal, instance=Part-1
    8,   37,   65,   66,   77,  106,  134,  135,  146,  175,  203,  204,  215,  244,  272,  273
  284,  313,  341,  342,  353,  382,  410,  411,  422,  451,  479,  480,  491,  520,  548,  549
  560,  589,  617,  618,  629,  658,  686,  687,  698,  727,  755,  756,  767,  796,  824,  825
  836,  865,  893,  894,  905,  934,  962,  963,  974, 1003, 1031, 1032, 1043, 1072, 1100, 1101
 1112, 1141, 1169, 1170, 1181, 1210, 1238, 1239, 1250, 1279, 1307, 1308, 1319, 1348, 1376, 1377
 1388, 1417, 1445, 1446, 1457, 1486, 1514, 1515, 1526, 1555, 1583, 1584, 1595, 1624, 1652, 1653
 1664, 1693, 1721, 1722, 1733, 1762, 1790, 1791, 1802, 1831, 1859, 1860, 1871, 1900, 1928, 1929
 1940, 1969, 1997, 1998, 2009, 2038, 2066, 2067, 2078, 2107, 2135, 2136, 2147, 2176, 2204, 2205
 2216, 2245, 2273, 2274, 2285, 2314, 2342, 2343, 2354, 2383, 2411, 2412, 2423, 2452, 2480, 2481
 2492, 2521, 2549, 2550, 2561, 2590, 2618, 2619, 2630, 2659, 2687, 2688, 2699, 2728, 2756, 2757
 2768, 2797, 2825, 2826, 2837, 2866, 2894, 2895, 2906, 2935, 2963, 2964, 2975, 3004, 3032, 3033
 3044, 3073, 3101, 3102, 3113, 3142, 3170, 3171, 3182, 3211, 3239, 3240, 3251, 3280, 3308, 3309
 3320, 3349, 3377, 3378, 3389, 3418, 3446, 3447
*Surface, type=ELEMENT, name=Surf-3
_Surf-3_S6, S6
_Surf-3_S4, S4
_Surf-3_S3, S3
*Elset, elset=_Surf-4_S4, internal, instance=Part-1
    1,   40,   41,   70,  109,  110,  139,  178,  179,  208,  247,  248,  277,  316,  317,  346
  385,  386,  415,  454,  455,  484,  523,  524,  553,  592,  593,  622,  661,  662,  691,  730
  731,  760,  799,  800,  829,  868,  869,  898,  937,  938,  967, 1006, 1007, 1036, 1075, 1076
 1105, 1144, 1145, 1174, 1213, 1214, 1243, 1282, 1283, 1312, 1351, 1352, 1381, 1420, 1421, 1450
 1489, 1490, 1519, 1558, 1559, 1588, 1627, 1628, 1657, 1696, 1697, 1726, 1765, 1766, 1795, 1834
 1835, 1864, 1903, 1904, 1933, 1972, 1973, 2002, 2041, 2042, 2071, 2110, 2111, 2140, 2179, 2180
 2209, 2248, 2249, 2278, 2317, 2318, 2347, 2386, 2387, 2416, 2455, 2456, 2485, 2524, 2525, 2554
 2593, 2594, 2623, 2662, 2663, 2692, 2731, 2732, 2761, 2800, 2801, 2830, 2869, 2870, 2899, 2938
 2939, 2968, 3007, 3008, 3037, 3076, 3077, 3106, 3145, 3146, 3175, 3214, 3215, 3244, 3283, 3284
 3313, 3352, 3353, 3382, 3421, 3422
*Elset, elset=_Surf-4_S3, internal, instance=Part-1
    2,    3,   71,   72,  140,  141,  209,  210,  278,  279,  347,  348,  416,  417,  485,  486
  554,  555,  623,  624,  692,  693,  761,  762,  830,  831,  899,  900,  968,  969, 1037, 1038
 1106, 1107, 1175, 1176, 1244, 1245, 1313, 1314, 1382, 1383, 1451, 1452, 1520, 1521, 1589, 1590
 1658, 1659, 1727, 1728, 1796, 1797, 1865, 1866, 1934, 1935, 2003, 2004, 2072, 2073, 2141, 2142
 2210, 2211, 2279, 2280, 2348, 2349, 2417, 2418, 2486, 2487, 2555, 2556, 2624, 2625, 2693, 2694
 2762, 2763, 2831, 2832, 2900, 2901, 2969, 2970, 3038, 3039, 3107, 3108, 3176, 3177, 3245, 3246
 3314, 3315, 3383, 3384
*Elset, elset=_Surf-4_S6, internal, instance=Part-1, generate
   67,  3448,    69
*Surface, type=ELEMENT, name=Surf-4
_Surf-4_S4, S4
_Surf-4_S3, S3
_Surf-4_S6, S6
*Elset, elset=_Surf-5_S2, internal, instance=Part-1, generate
 3382,  3450,     1
*Surface, type=ELEMENT, name=Surf-5
_Surf-5_S2, S2
*Elset, elset=_Surf-6_S1, internal, instance=Part-1, generate
  1,  69,   1
*Surface, type=ELEMENT, name=Surf-6
_Surf-6_S1, S1
*End Assembly
*Amplitude, name=Amp-x+, definition=SMOOTH STEP
             0.,            560.,          10000.,            560.
*Amplitude, name=Amp-x-, definition=SMOOTH STEP
             0.,            560.,          10000.,            560.
*Amplitude, name=Amp-y+, definition=SMOOTH STEP
             0.,            560.,          10000.,            560.
*Amplitude, name=Amp-y-, definition=SMOOTH STEP
             0.,            560.,          10000.,            560.
*Amplitude, name=Amp-z+, definition=SMOOTH STEP
             0.,            560.,          10000.,            560.
*Amplitude, name=Amp-z-, definition=SMOOTH STEP
             0.,            560.,          10000.,            560.
** 
** MATERIALS
** 
*Material, name=Material-1
*Conductivity
202.,100.
202.,200.
204.,300.
201.,400.
194.,500.
190.,550.
*Density
2800., 20.
2800.,200.
*Elastic
 6.8e+07, 0.29,  20.
 6.5e+07, 0.29, 100.
 6.1e+07, 0.29, 200.
 5.7e+07, 0.29, 300.
 5.2e+07, 0.29, 400.
 4.7e+07, 0.29, 500.
*Expansion
 2e-05,100.
 3e-05,200.
 3e-05,300.
 3e-05,400.
 3e-05,500.
 3e-05,550.
*Specific Heat
 910.,100.
 956.,200.
1007.,300.
1052.,400.
1124.,500.
1150.,550.
** 
** INTERACTION PROPERTIES
** 
*Film Property, name=IntProp-x+
30., 560.
*Film Property, name=IntProp-x-
30., 560.
*Film Property, name=IntProp-y+
30., 560.
*Film Property, name=IntProp-y-
30., 560.
*Film Property, name=IntProp-z+
30., 560.
*Film Property, name=IntProp-z-
30., 560.
** 
** PREDEFINED FIELDS
** 
** Name: Predefined Field-x+   Type: Temperature
*Initial Conditions, type=TEMPERATURE
Set-3, 30.
** Name: Predefined Field-x-   Type: Temperature
*Initial Conditions, type=TEMPERATURE
Set-4, 30.
** Name: Predefined Field-y+   Type: Temperature
*Initial Conditions, type=TEMPERATURE
Set-1, 30.
** Name: Predefined Field-y-   Type: Temperature
*Initial Conditions, type=TEMPERATURE
Set-2, 30.
** Name: Predefined Field-z+   Type: Temperature
*Initial Conditions, type=TEMPERATURE
Set-5, 30.
** Name: Predefined Field-z-   Type: Temperature
*Initial Conditions, type=TEMPERATURE
Set-6, 30.
** Name: initTempAll   Type: Temperature
*Initial Conditions, type=TEMPERATURE
Part-1.Set-All, 30.
** ----------------------------------------------------------------
** 
** STEP: Step-1
** 
*Step, name=Step-1, nlgeom=NO, inc=1000000
*Heat Transfer, end=PERIOD, deltmx=3., mxdem=0.01
0.01, 10000., 0.001, 600., 
** 
** INTERACTIONS
** 
** Interaction: Int-x+
*Sfilm, amplitude=Amp-x+
Surf-3, F, 1., IntProp-x+
** Interaction: Int-x-
*Sfilm, amplitude=Amp-x-
Surf-4, F, 1., IntProp-x-
** Interaction: Int-y+
*Sfilm, amplitude=Amp-y+
Surf-1, F, 1., IntProp-y+
** Interaction: Int-y-
*Sfilm, amplitude=Amp-y-
Surf-2, F, 1., IntProp-y-
** Interaction: Int-z+
*Sfilm, amplitude=Amp-z+
Surf-5, F, 1., IntProp-z+
** Interaction: Int-z-
*Sfilm, amplitude=Amp-z-
Surf-6, F, 1., IntProp-z-
** 
** OUTPUT REQUESTS
** 
*Restart, write, frequency=0
** 
** FIELD OUTPUT: F-Output-1
** 
*Output, field, variable=PRESELECT
** 
** HISTORY OUTPUT: H-Output-1
** 
*Output, history
*Radiation Output
FTEMP, 
*Contact Output
HTL, 
*End Step
