** snaparrow_gc.inp
*Preprint, echo=NO, model=NO, history=NO, contact=NO
**
** PARTS
**
*Part, name=Clip
*Node
      1,          -4.,        -0.25,          -2.
      2,          -4.,        -0.25,           2.
      3,          -4.,         0.75,           2.
      4,          -4.,         0.75,          -2.
      5,          -6.,        -0.25,          -2.
      6,          -6.,        -0.25,           2.
      7,          -6.,         0.75,           2.
      8,          -6.,         0.75,          -2.
      9,          -4.,        -1.75,          -2.
     10,          -4.,        -1.75,           2.
     11,          -6.,        -1.75,           2.
     12,          -6.,        -1.75,          -2.
     13,         -14.,        -0.25,          -2.
     14,         -14.,        -0.25,           2.
     15,         -14.,        -1.75,          -2.
     16,         -14.,        -1.75,           2.
     17,         -16.,        -0.25,           2.
     18,         -16.,        -0.25,           6.
     19,         -16.,           5.,           6.
     20,         -16.,           5.,           2.
** ... 4959 like lines cut
*Element, type=C3D8R
  1,    1,   49,  645,   68,   94,  717, 2823,  687
  2,   49,   50,  646,  645,  717,  718, 2824, 2823
  3,   50,   51,  647,  646,  718,  719, 2825, 2824
  4,   51,   52,  648,  647,  719,  720, 2826, 2825
  5,   52,   53,  649,  648,  720,  721, 2827, 2826
  6,   53,   54,  650,  649,  721,  722, 2828, 2827
  7,   54,   55,  651,  650,  722,  723, 2829, 2828
  8,   55,    2,   56,  651,  723,  108,  702, 2829
  9,   68,  645,  652,   67,  687, 2823, 2830,  688
 10,  645,  646,  653,  652, 2823, 2824, 2831, 2830
 11,  646,  647,  654,  653, 2824, 2825, 2832, 2831
 12,  647,  648,  655,  654, 2825, 2826, 2833, 2832
 13,  648,  649,  656,  655, 2826, 2827, 2834, 2833
 14,  649,  650,  657,  656, 2827, 2828, 2835, 2834
 15,  650,  651,  658,  657, 2828, 2829, 2836, 2835
 16,  651,   56,   57,  658, 2829,  702,  703, 2836
 17,   67,  652,  659,   66,  688, 2830, 2837,  689
 18,  652,  653,  660,  659, 2830, 2831, 2838, 2837
 19,  653,  654,  661,  660, 2831, 2832, 2839, 2838
 20,  654,  655,  662,  661, 2832, 2833, 2840, 2839
** ... 3660 like lines cut
*Nset, nset=All, generate
    1,  4978,     1
*Elset, elset=All, generate
    1,  3680,     1
** Section: Plastic
*Solid Section, elset=All, controls=EC-1, material=Duracon
1.,
*End Part
**  
*Part, name=Holder
*Node
      1,          -2.,           0.,        -4.25
      2,          -2.,          -2.,        -4.25
      3,          -2.,           0.,        -2.25
      4,           0.,          -2.,        -4.25
      5,           0.,           0.,        -4.25
      6,           0.,           0.,        -2.25
      7,           0.,          -2.,         4.25
      8,           0.,           0.,         4.25
      9,           0.,           0.,           6.
     10,           0.,          -2.,           6.
     11,          -2.,           0.,         4.25
     12,          -2.,           0.,           6.
     13,          -2.,          -2.,           6.
     14,          -2.,          -2.,         4.25
     15,          -2.,           0.,         2.25
     16,           0.,           0.,         2.25
     17,          -2.,           0.,          -6.
     18,           0.,           0.,          -6.
     19,           0.,           5.,          -6.
     20,           0.,           5.,           6.
** ... 1655 like lines cut
*Element, type=C3D8R
 1, 251, 252, 984, 976,  25,  26, 234, 233
 2, 252, 253, 985, 984,  26,  27, 235, 234
 3, 253,  33, 242, 985,  27,   1,  28, 235
 4, 976, 984, 986, 977, 233, 234, 237, 236
 5, 984, 985, 987, 986, 234, 235, 238, 237
 6, 985, 242, 243, 987, 235,  28,  29, 238
 7, 977, 986, 978, 970, 236, 237, 240, 239
 8, 986, 987, 979, 978, 237, 238, 241, 240
 9, 987, 243, 244, 979, 238,  29,  30, 241
10, 254, 255, 972, 969, 251, 252, 984, 976
11, 255, 256, 973, 972, 252, 253, 985, 984
12, 256,  32, 245, 973, 253,  33, 242, 985
13, 969, 972, 974, 968, 976, 984, 986, 977
14, 972, 973, 975, 974, 984, 985, 987, 986
15, 973, 245, 246, 975, 985, 242, 243, 987
16, 968, 974, 967, 965, 977, 986, 978, 970
17, 974, 975, 966, 967, 986, 987, 979, 978
18, 975, 246, 247, 966, 987, 243, 244, 979
19, 244,  39, 260, 979,  30,   2,  34, 241
20, 979, 260, 261, 978, 241,  34,  35, 240
** ... 1156 like lines cut
*Nset, nset=All, generate
    1,  1675,     1
*Elset, elset=All, generate
    1,  1176,     1
** Section: Plastic
*Solid Section, elset=All, controls=EC-1, material=Duracon
1.,
*End Part
**  
**
** ASSEMBLY
**
*Assembly, name=Assembly
**  
*Instance, name=Clip-1, part=Clip
*End Instance
**  
*Instance, name=Holder-1, part=Holder
*End Instance
**  
*Nset, nset=Fix, instance=Holder-1
   9,  10,  12,  13,  17,  18,  19,  20,  21,  22,  23,  24,  61,  62,  63,  71
  72,  73,  76,  77,  78,  82,  83,  84, 107, 108, 109, 132, 133, 134, 135, 136
 137, 138, 139, 140, 141, 142, 143, 144, 145, 146, 147, 148, 149, 150, 151, 152
 153, 154, 155, 156, 157, 158, 159, 160, 161, 162, 163, 164, 165, 166, 167, 168
 169, 170, 171, 172, 173, 174, 175, 176, 177, 178, 179, 180, 181, 182, 183, 184
 185, 186, 187, 188, 189, 190, 191, 192, 193, 194, 195, 196, 197, 198, 199, 200
 201, 202, 203, 204, 205, 206, 207, 208, 209, 210, 211, 212, 213, 214, 215, 216
 217, 218, 219, 220, 221, 222, 223, 224, 225, 226, 227, 228, 317, 318, 319, 320
 321, 322, 323, 324, 325, 401, 402, 403, 404, 405, 406, 407, 408, 409, 410, 411
 412, 413, 414, 415, 416, 417, 418, 419, 420, 421, 422, 423, 424, 425, 426, 427
 428, 429, 430, 431, 432, 433, 434, 435, 436, 437, 438, 439, 440, 441, 442, 443
 444, 445, 446, 447, 448, 449, 450, 451, 452, 453, 454, 455, 456, 457, 458, 459
 460, 461, 462, 463, 464, 465, 466, 467, 468, 469, 884, 885, 886, 887, 888, 889
 890, 891, 892, 893, 894, 895, 896, 897, 898, 899, 900, 901, 902, 903, 904, 905
 906, 907, 908, 909, 910, 911, 912, 913, 914, 915, 916, 917, 918, 919, 920, 921
 922, 923, 924, 925, 926, 927, 928, 929, 930, 931, 932, 933, 934, 935, 936, 937
 938, 939, 940, 941, 942, 943, 944, 945, 946
*Elset, elset=Fix, instance=Holder-1
   69,   70,   71,   72,   81,   82,   83,   84,   93,   94,   95,   96,  105,  106,  107,  108
  169,  170,  171,  172,  261,  262,  263,  264,  265,  266,  267,  268,  357,  358,  359,  360
  361,  362,  363,  364,  453,  454,  455,  456,  457,  458,  459,  460,  549,  550,  551,  552
  553,  554,  555,  556,  645,  646,  647,  648,  649,  650,  651,  652,  741,  742,  743,  744
  745,  746,  747,  748,  837,  838,  839,  840,  841,  842,  843,  844,  933,  934,  935,  936
  937,  938,  939,  940, 1029, 1030, 1031, 1032, 1033, 1034, 1035, 1036, 1037, 1038, 1039, 1040
 1041, 1042, 1043, 1044, 1045, 1046, 1047, 1048, 1049, 1050, 1051, 1052, 1053, 1054, 1055, 1056
 1057, 1058, 1059, 1060, 1061, 1062, 1063, 1064, 1065, 1066, 1067, 1068, 1069, 1070, 1071, 1072
 1073, 1074, 1075, 1076, 1077, 1078, 1079, 1080, 1081, 1082, 1083, 1084, 1085, 1086, 1087, 1088
 1089, 1090, 1091, 1092, 1093, 1094, 1095, 1096, 1097, 1098, 1099, 1100, 1101, 1102, 1103, 1104
 1105, 1106, 1107, 1108, 1109, 1110, 1111, 1112, 1113, 1114, 1115, 1116, 1117, 1118, 1119, 1120
 1121, 1122, 1123, 1124, 1125, 1126, 1127, 1128, 1129, 1130, 1131, 1132, 1133, 1134, 1135, 1136
 1137, 1138, 1139, 1140, 1141, 1142, 1143, 1144
*Nset, nset=Push, instance=Clip-1
   18,   19,   20,   21,   22,   23,   25,   26,   29,   30,   31,   32,   33,   34,   35,   36
   37,   38,   39,   40,   41,   42,   43,   44,  232,  233,  234,  235,  236,  237,  238,  239
  240,  241,  242,  243,  244,  245,  246,  247,  264,  265,  266,  267,  268,  269,  270,  271
  272,  273,  274,  275,  276,  277,  278,  279,  289,  290,  291,  295,  296,  297,  298,  299
  300,  311,  312,  313,  321,  322,  323,  324,  325,  326,  367,  368,  369,  384,  385,  386
  387,  388,  389,  390,  391,  392,  402,  403,  404,  405,  406,  407,  408,  418,  419,  420
  421,  422,  423,  424,  425,  426,  427,  428,  429,  430,  431,  432,  433,  434,  435,  436
  437,  438,  439,  440,  441,  442,  443,  444,  445,  446,  447,  448,  449,  450,  451,  452
  453,  454,  455,  456,  457,  468,  469,  470,  471,  472,  473,  474,  475,  476,  477,  488
  489,  490,  491,  492,  493,  494,  495,  496,  497,  498,  499,  500,  501,  502,  503,  504
  505,  506,  507,  508,  509,  510,  511,  512,  513,  514,  515,  516,  517,  518,  519,  520
  521,  522,  523,  524,  525,  526,  527,  528,  529,  530,  531,  532,  533,  534,  535,  536
  537,  538,  539,  560,  561,  562,  563,  564,  565,  566,  567,  568,  569,  570,  571,  572
  573,  574,  575,  576,  577,  578,  579,  580,  581,  582,  583,  584,  585,  586,  587,  588
  589,  590,  591,  592,  593,  594,  595,  596, 1368, 1369, 1370, 1371, 1372, 1373, 1374, 1375
 1376, 1377, 1378, 1379, 1380, 1381, 1382, 1383, 1384, 1385, 1386, 1387, 1388, 1389, 1390, 1391
 1392, 1393, 1394, 1416, 1417, 1418, 1419, 1420, 1421, 1422, 1423, 1424, 1425, 1426, 1427, 1428
 1429, 1430, 1431, 1432, 1433, 1434, 1435, 1436, 1509, 1510, 1511, 1512, 1513, 1514, 1515, 1516
 1517, 1632, 1633, 1634, 1635, 1636, 1637, 1638, 1639, 1640, 1809, 1810, 1811, 1812, 1813, 1814
 1815, 1816, 1817, 1818, 1819, 1820, 1821, 1822, 1823, 1824, 1825, 1826, 1827, 1828, 1829, 1857
** ... 11 like lines cut
*Nset, nset=refnode, instance=Clip-1
9999
*Elset, elset=Push, instance=Clip-1
  904,  912,  920,  928,  936,  944,  952,  960,  968,  969,  970,  971,  972,  973,  974,  975
  976,  984,  992, 1000, 1008, 1016, 1024, 1032, 1040, 1048, 1049, 1050, 1051, 1052, 1053, 1054
 1055, 1056, 1064, 1072, 1080, 1088, 1096, 1104, 1112, 1120, 1128, 1129, 1130, 1131, 1132, 1133
 1134, 1135, 1136, 1144, 1152, 1160, 1168, 1176, 1184, 1192, 1200, 1208, 1209, 1210, 1211, 1212
 1213, 1214, 1215, 1216, 1245, 1246, 1247, 1248, 1277, 1278, 1279, 1280, 1309, 1310, 1311, 1312
 1341, 1342, 1343, 1344, 1473, 1481, 1489, 1497, 1505, 1513, 1521, 1529, 1537, 1545, 1553, 1561
 1569, 1577, 1585, 1593, 1610, 1620, 1630, 1640, 1650, 1660, 1670, 1680, 1690, 1700, 1710, 1720
 1730, 1740, 1750, 1760, 1770, 1780, 1790, 1800, 1810, 1820, 1830, 1840, 1850, 1860, 1870, 1880
 1890, 1900, 1910, 1920, 1949, 1950, 1951, 1952, 1981, 1982, 1983, 1984, 2013, 2014, 2015, 2016
 2045, 2046, 2047, 2048, 2077, 2078, 2079, 2080, 2109, 2110, 2111, 2112, 2141, 2142, 2143, 2144
 2173, 2174, 2175, 2176, 2205, 2206, 2207, 2208, 2237, 2238, 2239, 2240, 2241, 2242, 2243, 2244
 2245, 2246, 2247, 2248, 2249, 2250, 2251, 2252, 2253, 2254, 2255, 2256, 2257, 2258, 2259, 2260
 2261, 2262, 2263, 2264, 2265, 2266, 2267, 2268, 2269, 2270, 2271, 2272, 2282, 2292, 2302, 2312
 2322, 2332, 2342, 2343, 2344, 2345, 2346, 2347, 2348, 2349, 2350, 2351, 2352, 2362, 2372, 2382
 2392, 2402, 2412, 2422, 2423, 2424, 2425, 2426, 2427, 2428, 2429, 2430, 2431, 2432, 2442, 2452
 2462, 2472, 2482, 2492, 2502, 2503, 2504, 2505, 2506, 2507, 2508, 2509, 2510, 2511, 2512, 2522
 2532, 2542, 2552, 2562, 2572, 2582, 2583, 2584, 2585, 2586, 2587, 2588, 2589, 2590, 2591, 2592
 2593, 2594, 2595, 2596, 2597, 2598, 2599, 2600, 2601, 2602, 2603, 2604, 2605, 2606, 2607, 2608
 2609, 2610, 2611, 2612, 2613, 2614, 2615, 2616, 2617, 2618, 2619, 2620, 2621, 2622, 2623, 2624
 2945, 2946, 2947, 2948, 2949, 2950, 2951, 2952, 2953, 2954, 2955, 2956, 2957, 2958, 2959, 2960
** ... 4 like lines cut
*Elset, elset=__Int-1_gcs0_80_S3, internal, instance=Holder-1
 109, 110, 111, 112, 113, 114, 139, 140, 141, 142, 143, 144
*Elset, elset=__Int-1_gcs0_80_S4, internal, instance=Holder-1
 133, 134, 135, 136, 137, 138, 163, 164, 165, 166, 167, 168
*Surface, type=ELEMENT, name=_Int-1_gcs0_80, internal
__Int-1_gcs0_80_S3, S3
__Int-1_gcs0_80_S4, S4
*Elset, elset=__Int-1_gcs0_81_S4, internal, instance=Holder-1
 19, 20, 21, 22, 23, 24, 31, 32, 33, 34, 35, 36
*Elset, elset=__Int-1_gcs0_81_S3, internal, instance=Holder-1, generate
 25,  30,   1
*Elset, elset=__Int-1_gcs0_81_S2, internal, instance=Holder-1, generate
 55,  60,   1
*Surface, type=ELEMENT, name=_Int-1_gcs0_81, internal
__Int-1_gcs0_81_S4, S4
__Int-1_gcs0_81_S3, S3
__Int-1_gcs0_81_S2, S2
*kinematic coupling,ref node=refnode
Push,1,3
*End Assembly
** 
** ELEMENT CONTROLS
** 
*Section Controls, name=EC-1, hourglass=ENHANCED
1., 1., 1.
** 
** MATERIALS
** 
*Material, name=Duracon
*Elastic
1567., 0.45
** 
** INTERACTION PROPERTIES
** 
*Surface Interaction, name=IntProp-1
1.,
*Friction, slip tolerance=0.005
 0.1,
*Surface Behavior, penalty
** 
** INTERACTIONS
** 
** Interaction: Int-1
*Contact
*Contact Inclusions, ALL EXTERIOR
*Contact Property Assignment
 ,  , IntProp-1
*Surface Property Assignment, property=GEOMETRIC CORRECTION
_Int-1_gcs0_80, Circumferential, -2., -1.77636e-15, 4.25,  -1., -1.83828e-15, 4.25
_Int-1_gcs0_81, Circumferential, -2., -8.88178e-16, -4.25,  -1., -9.501e-16, -4.25
** ----------------------------------------------------------------
** 
** STEP: Step-1
** 
*Step, name=Step-1, nlgeom=YES, inc=10000, unsymm=YES
***Static, stabilize=0.000002, allsdtol=0.0, continue=NO
*Static
0.1, 1., 1e-05, 0.1
***contact controls, stabilize=1.e-4
** 
** BOUNDARY CONDITIONS
** 
** Name: Fix Type: Displacement/Rotation
*Boundary
Fix, 1, 1
Fix, 2, 2
Fix, 3, 3
** Name: push Type: Displacement/Rotation
*Boundary
refnode, 1, 1, 7.
refnode, 2, 6
** 
** OUTPUT REQUESTS
** 
*Restart, write, frequency=0
** 
** FIELD OUTPUT: F-Output-2
** 
*Output, field
*Contact Output
CFORCE, CSTRESSETOS
** 
** FIELD OUTPUT: F-Output-1
** 
*Output, field, variable=PRESELECT
** 
** HISTORY OUTPUT: H-Output-1
** 
*Output, history
*energy output
ETOTAL,ALLAE,ALLIE,ALLWK,ALLFD,
ALLCCE,ALLCCEN,ALLCCET,ALLCCDW
*node output,nset=refnode
rf1
*energy print
*End Step

