*HEADING
 Dynamic Axial Crushing of a Double Chambered Aluminum Extrusion
**
*PREPRINT, ECHO=YES, HISTORY=YES, CONTACT=YES, MODEL=YES
*RESTART, WRITE
**
*********************** M O D E L     D E F I N I T I O N  *********************
**
** --------------------  N O D A L    P O I N T    D A T A  --------------------
**
*Node, Nset=All_Nodes
     78565,  -1.000000e+00,  -2.500000e+02,   2.500000e+02
     78566,  -1.000000e+00,  -2.352940e+02,   2.500000e+02
     78567,  -1.000000e+00,  -2.205880e+02,   2.500000e+02
     78568,  -1.000000e+00,  -2.058820e+02,   2.500000e+02
     78569,  -1.000000e+00,  -1.911760e+02,   2.500000e+02
     78570,  -1.000000e+00,  -1.764710e+02,   2.500000e+02
     78571,  -1.000000e+00,  -1.617650e+02,   2.500000e+02
     78572,  -1.000000e+00,  -1.470590e+02,   2.500000e+02
     78573,  -1.000000e+00,  -1.323530e+02,   2.500000e+02
     78574,  -1.000000e+00,  -1.176470e+02,   2.500000e+02
     78575,  -1.000000e+00,  -1.029410e+02,   2.500000e+02
     78576,  -1.000000e+00,  -8.823530e+01,   2.500000e+02
     78577,  -1.000000e+00,  -7.352940e+01,   2.500000e+02
     78578,  -1.000000e+00,  -5.882350e+01,   2.500000e+02
     78579,  -1.000000e+00,  -4.411760e+01,   2.500000e+02
     78580,  -1.000000e+00,  -2.941180e+01,   2.500000e+02
     78581,  -1.000000e+00,  -1.470590e+01,   2.500000e+02
     78582,  -1.000000e+00,   0.000000e+00,   2.500000e+02
     78583,  -1.000000e+00,   1.470590e+01,   2.500000e+02
     78584,  -1.000000e+00,   2.941180e+01,   2.500000e+02
** ... 11167 like lines cut
**
** ------------------------  E L E M E N T     D A T A  ------------------------
**
*Element, Type=SFM3D4R, Elset=P2_BaseSupport
  199105,    153203,    150892,    151252,    153521
  199106,    153203,    153540,    151839,    150892
  199107,    150946,    150901,    150902,    151006
  199108,    153302,    150989,    150890,    153217
  199109,    150890,    151841,    153544,    153217
  199110,    151027,    150974,    150937,    150938
  199111,    151016,    150907,    150890,    150989
  199112,    151003,    150990,    150942,    150943
  199113,    150986,    150985,    150995,    151012
  199114,    151013,    150993,    150992,    150996
  199115,    150999,    150904,    150905,    151018
  199116,    150998,    150997,    151000,    151005
  199117,    150944,    150945,    151007,    151001
  199118,    150996,    150992,    150991,    151002
  199119,    150997,    150996,    151002,    151000
  199120,    151000,    151002,    151003,    151001
  199121,    151001,    151003,    150943,    150944
  199122,    151002,    150991,    150990,    151003
  199123,    150904,    150999,    151004,    150903
  199124,    150999,    150998,    151005,    151004
** ... 3768 like lines cut
**
*Surface section, Elset=P2_BaseSupport, DENSITY=7.8200e-09
**
*Element, Type=SFM3D4R, Elset=P3_Impactor
  197949,     79696,     78700,     78565,     78566
  197950,     79398,     78701,     78650,     78651
  197951,     79055,     78733,     78582,     78583
  197952,     78718,     79126,     78734,     78717
  197953,     78749,     78616,     78617,     78983
  197954,     78750,     78708,     78709,     78934
  197955,     78765,     78625,     78626,     78859
  197956,     78757,     78758,     78840,     78766
  197957,     78642,     78643,     78809,     78772
  197958,     78770,     78812,     78773,     78769
  197959,     78779,     78704,     78705,     78796
  197960,     78776,     78777,     78797,     78780
  197961,     78790,     78782,     78753,     78754
  197962,     78783,     78781,     78782,     78790
  197963,     78768,     78788,     78785,     78767
  197964,     78774,     78775,     78787,     78786
  197965,     78788,     78786,     78784,     78785
  197966,     78775,     78776,     78780,     78787
  197967,     78787,     78780,     78781,     78783
  197968,     78786,     78787,     78783,     78784
** ... 1136 like lines cut
**
*Surface section, Elset=P3_Impactor, DENSITY=7.8200e-09
**
*Element, Type=S3R, Elset=P1_DoubleChamberExtrusion
  191791,    226378,    226437,    226444
  191897,    226546,    226545,    226541
  194963,    229950,    229933,    229927
  194982,    229951,    229947,    229949
**
*Element, Type=S4R, Elset=P1_DoubleChamberExtrusion
  191577,    226138,    226193,    226192,    226139
  191578,    226139,    226192,    226194,    226140
  191579,    226140,    226194,    226195,    226141
  191580,    226141,    226195,    226196,    226142
  191581,    226142,    226196,    226197,    226143
  191585,    226143,    226197,    226202,    226179
  191586,    226179,    226202,    226204,    226180
  191587,    226180,    226204,    226205,    226181
  191588,    226193,    226207,    226206,    226192
  191589,    226192,    226206,    226208,    226194
  191590,    226194,    226208,    226209,    226195
  191591,    226195,    226209,    226210,    226196
  191592,    226196,    226210,    226211,    226197
  191596,    226197,    226211,    226216,    226202
  191597,    226202,    226216,    226218,    226204
  191598,    226204,    226218,    226219,    226205
  191599,    226207,    226221,    226220,    226206
  191600,    226206,    226220,    226222,    226208
  191601,    226208,    226222,    226223,    226209
  191602,    226209,    226223,    226224,    226210
** ... 6150 like lines cut
**
*Shell section, Elset=P1_DoubleChamberExtrusion, Material=AluminumAlloy
  2.5000e+00,     5 
**
** -----------------------  M A T E R I A L     D A T A  -----------------------
**
** Double Chamber Extrusion
**
*Material, Name=AluminumAlloy
*Density
2.70E-09
*Elastic
7.00E+04,	0.33
*plastic,hardening=isotropic,rate=0
3.1100E+02,	0.0000E+00
3.1664E+02,	3.4373E-03
3.2452E+02,	8.5932E-03
3.3520E+02,	1.6327E-02
3.4896E+02,	2.7928E-02
3.6552E+02,	4.5329E-02
3.8370E+02,	7.1431E-02
4.0165E+02,	1.1058E-01
4.1821E+02,	1.6931E-01
4.3474E+02,	2.5741E-01
4.5535E+02,	3.8955E-01
4.8516E+02,	5.8775E-01
5.2975E+02,	8.8507E-01
5.9664E+02,	1.3310E+00
6.9698E+02,	2.0000E+00
6.9698E+02,	2.1000E+00
*plastic,hardening=isotropic,rate=2.00e-03
3.1100E+02,	0.0000E+00
3.1664E+02,	3.4373E-03
3.2452E+02,	8.5932E-03
3.3520E+02,	1.6327E-02
3.4896E+02,	2.7928E-02
3.6552E+02,	4.5329E-02
3.8370E+02,	7.1431E-02
4.0165E+02,	1.1058E-01
4.1821E+02,	1.6931E-01
4.3474E+02,	2.5741E-01
4.5535E+02,	3.8955E-01
4.8516E+02,	5.8775E-01
5.2975E+02,	8.8507E-01
5.9664E+02,	1.3310E+00
6.9698E+02,	2.0000E+00
6.9698E+02,	2.1000E+00
*plastic,hardening=isotropic,rate=1.00e-02
3.1254E+02,	0.0000E+00
3.1817E+02,	3.4373E-03
3.2606E+02,	8.5932E-03
3.3673E+02,	1.6327E-02
3.5050E+02,	2.7928E-02
3.6706E+02,	4.5329E-02
3.8523E+02,	7.1431E-02
4.0318E+02,	1.1058E-01
4.1975E+02,	1.6931E-01
4.3627E+02,	2.5741E-01
4.5688E+02,	3.8955E-01
4.8668E+02,	5.8775E-01
5.3127E+02,	8.8507E-01
5.9814E+02,	1.3310E+00
6.9843E+02,	2.0000E+00
6.9843E+02,	2.1000E+00
*plastic,hardening=isotropic,rate=1.00e-01
3.1577E+02,	0.0000E+00
3.2140E+02,	3.4373E-03
3.2929E+02,	8.5932E-03
3.3996E+02,	1.6327E-02
3.5372E+02,	2.7928E-02
3.7028E+02,	4.5329E-02
3.8845E+02,	7.1431E-02
4.0639E+02,	1.1058E-01
4.2294E+02,	1.6931E-01
4.3945E+02,	2.5741E-01
4.6001E+02,	3.8955E-01
4.8975E+02,	5.8775E-01
5.3421E+02,	8.8507E-01
6.0085E+02,	1.3310E+00
7.0066E+02,	2.0000E+00
7.0066E+02,	2.1000E+00
*plastic,hardening=isotropic,rate=1.00e+00
3.2083E+02,	0.0000E+00
3.2646E+02,	3.4373E-03
3.3434E+02,	8.5932E-03
3.4500E+02,	1.6327E-02
3.5874E+02,	2.7928E-02
3.7526E+02,	4.5329E-02
3.9338E+02,	7.1431E-02
4.1123E+02,	1.1058E-01
4.2762E+02,	1.6931E-01
4.4388E+02,	2.5741E-01
4.6404E+02,	3.8955E-01
4.9309E+02,	5.8775E-01
5.3629E+02,	8.8507E-01
6.0052E+02,	1.3310E+00
6.9540E+02,	2.0000E+00
6.9540E+02,	2.1000E+00
*plastic,hardening=isotropic,rate=1.00e+01
3.2877E+02,	0.0000E+00
3.3433E+02,	3.4373E-03
3.4210E+02,	8.5932E-03
3.5258E+02,	1.6327E-02
3.6603E+02,	2.7928E-02
3.8208E+02,	4.5329E-02
3.9940E+02,	7.1431E-02
4.1597E+02,	1.1058E-01
4.3032E+02,	1.6931E-01
4.4332E+02,	2.5741E-01
4.5819E+02,	3.8955E-01
4.7839E+02,	5.8775E-01
5.0628E+02,	8.8507E-01
5.4302E+02,	1.3310E+00
5.8721E+02,	2.0000E+00
5.8721E+02,	2.1000E+00
*plastic,hardening=isotropic,rate=2.50e+01
3.3306E+02,	0.0000E+00
3.3846E+02,	3.4373E-03
3.4597E+02,	8.5932E-03
3.5604E+02,	1.6327E-02
3.6882E+02,	2.7928E-02
3.8376E+02,	4.5329E-02
3.9929E+02,	7.1431E-02
4.1299E+02,	1.1058E-01
4.2283E+02,	1.6931E-01
4.2892E+02,	2.5741E-01
4.3319E+02,	3.8955E-01
4.3702E+02,	5.8775E-01
4.3971E+02,	8.8507E-01
4.3844E+02,	1.3310E+00
4.2834E+02,	2.0000E+00
4.2834E+02,	2.1000E+00
*plastic,hardening=isotropic,rate=1.00e+02
3.4119E+02,	0.0000E+00
3.4639E+02,	3.4373E-03
3.5359E+02,	8.5932E-03
3.6316E+02,	1.6327E-02
3.7513E+02,	2.7928E-02
3.8877E+02,	4.5329E-02
4.0220E+02,	7.1431E-02
4.1262E+02,	1.1058E-01
4.1753E+02,	1.6931E-01
4.1644E+02,	2.5741E-01
4.1053E+02,	3.8955E-01
4.0034E+02,	5.8775E-01
3.8470E+02,	8.8507E-01
3.6154E+02,	1.3310E+00
3.2908E+02,	2.0000E+00
3.2908E+02,	2.1000E+00
*plastic,hardening=isotropic,rate=1.00e+03
3.4568E+02,	0.0000E+00
3.5083E+02,	3.4373E-03
3.5796E+02,	8.5932E-03
3.6741E+02,	1.6327E-02
3.7920E+02,	2.7928E-02
3.9254E+02,	4.5329E-02
4.0550E+02,	7.1431E-02
4.1519E+02,	1.1058E-01
4.1903E+02,	1.6931E-01
4.1641E+02,	2.5741E-01
4.0844E+02,	3.8955E-01
3.9559E+02,	5.8775E-01
3.7675E+02,	8.8507E-01
3.5024E+02,	1.3310E+00
3.1499E+02,	2.0000E+00
3.1499E+02,	2.1000E+00
*plastic,hardening=isotropic,rate=1.00e+04
3.4568E+02,	0.0000E+00
3.5083E+02,	3.4373E-03
3.5796E+02,	8.5932E-03
3.6741E+02,	1.6327E-02
3.7920E+02,	2.7928E-02
3.9254E+02,	4.5329E-02
4.0550E+02,	7.1431E-02
4.1519E+02,	1.1058E-01
4.1903E+02,	1.6931E-01
4.1641E+02,	2.5741E-01
4.0844E+02,	3.8955E-01
3.9559E+02,	5.8775E-01
3.7675E+02,	8.8507E-01
3.5024E+02,	1.3310E+00
3.1499E+02,	2.0000E+00
3.1499E+02,	2.1000E+00
*DAMAGE INITIATION, CRITERION=DUCTILE
3.3238E+01,	-3.3333E+00,	1.00E-04
3.3238E+01,	-3.3333E-01,	1.00E-04
2.3381E+01,	-2.6667E-01,	1.00E-04
1.6447E+01,	-2.0000E-01,	1.00E-04
1.1570E+01,	-1.3333E-01,	1.00E-04
8.1394E+00,	-6.6667E-02,	1.00E-04
5.7268E+00,	0.0000E+00,	1.00E-04
4.0303E+00,	6.6667E-02,	1.00E-04
2.8377E+00,	1.3333E-01,	1.00E-04
2.0000E+00,	2.0000E-01,	1.00E-04
1.4124E+00,	2.6667E-01,	1.00E-04
1.0013E+00,	3.3333E-01,	1.00E-04
7.1550E-01,	4.0000E-01,	1.00E-04
5.1920E-01,	4.6667E-01,	1.00E-04
3.8780E-01,	5.3333E-01,	1.00E-04
3.0480E-01,	6.0000E-01,	1.00E-04
2.6000E-01,	6.6667E-01,	1.00E-04
2.4758E-01,	7.3010E-01,	1.00E-04
3.0283E-01,	8.5097E-01,	1.00E-04
6.1953E-01,	1.0237E+00,	1.00E-04
** ... 72 like lines cut
*DAMAGE EVOLUTION, TYPE=DISPLACEMENT
0.1
*DAMAGE INITIATION, CRITERION=SHEAR, ks=0.3
2.7610E-01,	-1.0000E+01,	1.00E-04
2.7610E-01,	1.4236E+00,	1.00E-04
2.6130E-01,	1.4625E+00,	1.00E-04
2.5300E-01,	1.5013E+00,	1.00E-04
2.5100E-01,	1.5401E+00,	1.00E-04
2.5510E-01,	1.5789E+00,	1.00E-04
2.6560E-01,	1.6177E+00,	1.00E-04
2.8250E-01,	1.6566E+00,	1.00E-04
3.0650E-01,	1.6954E+00,	1.00E-04
3.3790E-01,	1.7342E+00,	1.00E-04
3.7780E-01,	1.7730E+00,	1.00E-04
4.2690E-01,	1.8118E+00,	1.00E-04
4.8650E-01,	1.8506E+00,	1.00E-04
5.5810E-01,	1.8895E+00,	1.00E-04
6.4350E-01,	1.9283E+00,	1.00E-04
7.4480E-01,	1.9671E+00,	1.00E-04
8.6440E-01,	2.0059E+00,	1.00E-04
1.0053E+00,	2.0447E+00,	1.00E-04
1.1710E+00,	2.0835E+00,	1.00E-04
1.3655E+00,	2.1224E+00,	1.00E-04
** ... 72 like lines cut
*DAMAGE EVOLUTION, TYPE=DISPLACEMENT
0.1
*DAMAGE INITIATION, CRITERION=MSFLD, DEFINITION=FLD 
2.0370E-01,	-1.0185E-01
1.6590E-01,	-6.9125E-02
1.4548E-01,	-4.8493E-02
1.2454E-01,	-3.1136E-02
1.1234E-01,	-1.8723E-02
1.0013E-01,	-8.3438E-03
8.8206E-02,	0.0000E+00
9.2471E-02,	7.1132E-03
1.0346E-01,	1.5916E-02
1.2030E-01,	2.7762E-02
1.4220E-01,	4.3753E-02
1.6194E-01,	6.2283E-02
1.8590E-01,	8.5800E-02
2.0756E-01,	1.1176E-01
2.2714E-01,	1.3978E-01
2.4487E-01,	1.6952E-01
2.5572E-01,	1.9671E-01
2.6551E-01,	2.2466E-01
2.7437E-01,	2.5327E-01
2.8241E-01,	2.8241E-01
*DAMAGE EVOLUTION, TYPE=DISPLACEMENT
0.1
**
**
** ---------------------  R I G I D    B O D Y    D A T A  --------------------
**
** Impactor
**
*Elset, Elset=RBody_Impactor
P3_Impactor,
**
*Nset, Nset=RBody_Impactor_RefNode
  233109,
**
*Rigid body, Ref node=RBody_Impactor_RefNode, Position=CENTER OF MASS, Elset=RBody_Impactor
**
*ELEMENT, TYPE=MASS, ELSET=MASSE_500_kg
         1,    233109
*MASS, ELSET=MASSE_500_kg
 0.500,
*ELEMENT, TYPE=ROTARYI, ELSET=MASSE_500_kg_Rot_Inertia
         2,    233109   
*ROTARY INERTIA, ELSET=MASSE_500_kg_Rot_Inertia
 0.2088e+005,  0.1431e+005,  0.1430e+005
**
** Base Support
**
*Elset, Elset=RBody_BaseSupport
P2_BaseSupport,
**
*Nset, Nset=RBody_BaseSupport_RefNode
  233110,
**
*Rigid body, Ref node=RBody_BaseSupport_RefNode, Position=CENTER OF MASS, Elset=RBody_BaseSupport
**
**
*NSET, NSET=P1_DoubleChamberExtrusion, ELSET=P1_DoubleChamberExtrusion    
**
** ----------------  C O N T A C T    S U R F A C E    D A T A  ----------------
**
** Contact Impactor/DoubleChamberExtrusion
**
*SURFACE,TYPE=ELEMENT,NAME=Contact_1_Master
P3_Impactor, SNEG
**
*SURFACE,TYPE=NODE,NAME=Contact_Slave
P1_DoubleChamberExtrusion,
**
** Contact BaseSupport/DoubleChamberExtrusion
**
*SURFACE,TYPE=ELEMENT,NAME=Contact_2_Master
P2_BaseSupport, SNEG
**
** Self Contact
**
*Surface, Name=Contact_3_Self, Type=ELEMENT
P1_DoubleChamberExtrusion,
**
*Surface Interaction, Name=Contact_3_Prop
*Friction
  1.500000e-01,
**
** -------------  B O U N D A R Y    C O N D I T I O N    D A T A  -------------
**
** Displacement Boundary Condition (Impactor)
**
*Boundary
RBody_Impactor_RefNode, 2, 2
RBody_Impactor_RefNode, 3, 3
RBody_Impactor_RefNode, 4, 4
RBody_Impactor_RefNode, 5, 5
RBody_Impactor_RefNode, 6, 6
**
** Displacement Boundary Condition (Base Support)
**
*Boundary
RBody_BaseSupport_RefNode, 1, 6
*INITIAL CONDITIONS, TYPE=VELOCITY
 RBody_Impactor_RefNode, 1, 10000.0
*NSET, NSET=QA_TEST
RBody_Impactor_RefNode,
**
**
****************** H I S T O R Y     D E F I N I T I O N ************************
**
*Step, NLGEOM=YES
**
*Dynamic, Explicit, Element by element
,0.0501
**
*DIAGNOSTICS, CONTACT INITIAL OVERCLOSURE=DETAIL
**
*NSET, NSET=Output_Refnodes
 RBody_Impactor_RefNode, RBody_BaseSupport_RefNode
**
** ------------  C O N T A C T    I N T E R A C T I O N    D A T A  -----------
**
**Contact Impactor/DoubleChamberExtrusion
*CONTACT PAIR, INTERACTION=CON01, CPSET=C_P_I, MECHANICAL CONSTRAINT=PENALTY
 Contact_Slave, Contact_1_Master
*SURFACE INTERACTION, NAME=CON01
*FRICTION
 0.15,
** 
**Contact BaseSupport/DoubleChamberExtrusion
*CONTACT PAIR, INTERACTION=CON02, CPSET=C_P_S, MECHANICAL CONSTRAINT=PENALTY
 Contact_Slave, Contact_2_Master
*SURFACE INTERACTION, NAME=CON02
*FRICTION
 0.15,
** 
**Self Contact
**
*Contact
**
*Contact inclusions
 Contact_3_Self, Contact_3_Self
**
*Contact property assignment
 Contact_3_Self, Contact_3_Self, Contact_3_Prop
**
*Surface property assignment, Property=THICKNESS
 Contact_3_Self,     2.500000e+00, 1.
*Contact controls assignment, nodal erosion=yes
**                                                                               
******************************************************************************
**
**
** ----------------------  O U T P U T     R E Q U E S T  ----------------------
**
** Default output requests
**
*Output, Field, Number interval= 4
*Node output,nset=QA_TEST
 U,
*Output, Field, Number interval= 25
*Node output
 U,
*Element output
 S, E, STATUS, DMICRT
**
*OUTPUT, HISTORY, TIME INTERVAL=1.0e-04
*NODE OUTPUT,NSET=RBody_Impactor_RefNode
U1,
*NODE OUTPUT,NSET=RBody_BaseSupport_RefNode
RF1,
*ENERGY OUTPUT
ALLKE, ALLIE, ALLSE, ALLPD, ALLVD, ALLAE, ALLWK, ETOTAL
*End step

